*SPEF "IEEE 1481-1998"
*DESIGN "IIR_DF2_filter"
*DATE "Mon Nov 16 22:04:54 2020"
*VENDOR "Cadence Design Systems, Inc."
*PROGRAM "Innovus"
*VERSION "17.11-s080_1"
*DESIGN_FLOW "COUPLING C" "PIN_CAP NONE" "NAME_SCOPE LOCAL"
*DIVIDER /
*DELIMITER :
*BUS_DELIMITER []
*T_UNIT 1 NS
*C_UNIT 1 PF
*R_UNIT 1 OHM
*L_UNIT 1 HENRY

// MMMC spef file for corner 'my_rc'

*NAME_MAP

*1 CLK
*2 RST_n
*3 VIN
*4 VOUT
*5 a0[11]
*6 a0[10]
*7 a0[9]
*8 a0[8]
*9 a0[7]
*10 a0[6]
*11 a0[5]
*12 a0[4]
*13 a0[3]
*14 a0[2]
*15 a0[1]
*16 a0[0]
*17 a1[11]
*18 a1[10]
*19 a1[9]
*20 a1[8]
*21 a1[7]
*22 a1[6]
*23 a1[5]
*24 a1[4]
*25 a1[3]
*26 a1[2]
*27 a1[1]
*28 a1[0]
*29 a2[11]
*30 a2[10]
*31 a2[9]
*32 a2[8]
*33 a2[7]
*34 a2[6]
*35 a2[5]
*36 a2[4]
*37 a2[3]
*38 a2[2]
*39 a2[1]
*40 a2[0]
*41 b1[11]
*42 b1[10]
*43 b1[9]
*44 b1[8]
*45 b1[7]
*46 b1[6]
*47 b1[5]
*48 b1[4]
*49 b1[3]
*50 b1[2]
*51 b1[1]
*52 b1[0]
*53 b2[11]
*54 b2[10]
*55 b2[9]
*56 b2[8]
*57 b2[7]
*58 b2[6]
*59 b2[5]
*60 b2[4]
*61 b2[3]
*62 b2[2]
*63 b2[1]
*64 b2[0]
*65 DIN[11]
*66 DIN[10]
*67 DIN[9]
*68 DIN[8]
*69 DIN[7]
*70 DIN[6]
*71 DIN[5]
*72 DIN[4]
*73 DIN[3]
*74 DIN[2]
*75 DIN[1]
*76 DIN[0]
*77 DOUT[11]
*78 DOUT[10]
*79 DOUT[9]
*80 DOUT[8]
*81 DOUT[7]
*82 DOUT[6]
*83 DOUT[5]
*84 DOUT[4]
*85 DOUT[3]
*86 DOUT[2]
*87 DOUT[1]
*88 DOUT[0]
*89 FE_OFN5_N13
*90 FE_OFN4_N1
*91 FE_OFN3_N9
*92 FE_OFN2_N15
*93 FE_OFN1_N3
*94 FE_OFN0_N21
*95 FE_DBTN7_RST_n
*96 FE_DBTN6_EN
*97 FE_DBTN5_N0
*98 FE_DBTN4_N12
*99 FE_DBTN3_Z2_OUT_0
*100 FE_DBTN2_Z2_OUT_1
*101 FE_DBTN1_Z1_OUT_0
*102 FE_DBTN0_Z1_OUT_1
*103 EN
*104 VIN_S
*105 V_OUT
*106 OUTPUT
*107 VOUT_S
*108 N0
*109 N1
*110 N2
*111 N3
*112 N4
*113 N5
*114 N6
*115 N7
*116 N8
*117 N9
*118 N10
*119 N11
*120 N12
*121 N13
*122 N14
*123 N15
*124 N16
*125 N17
*126 N18
*127 N19
*128 N20
*129 N21
*130 N22
*131 N23
*132 n3
*133 n4
*134 n5
*135 n6
*136 T2_9_
*137 T2_8_
*138 T2_7_
*139 T2_6_
*140 T2_5_
*141 T2_4_
*142 T2_3_
*143 T2_2_
*144 T2_1_
*145 T2_11_
*146 T2_10_
*147 T2_0_
*148 T0_9_
*149 T0_8_
*150 T0_7_
*151 T0_6_
*152 T0_5_
*153 T0_4_
*154 T0_3_
*155 T0_2_
*156 T0_1_
*157 T0_11_
*158 T0_10_
*159 T0_0_
*160 n9
*161 n10
*162 n13
*163 n14
*164 n15
*165 n16
*166 n17
*167 n18
*168 n19
*169 n20
*170 n21
*171 n22
*172 n24
*173 n25
*174 n26
*175 n27
*176 n28
*177 n29
*178 n30
*179 n31
*180 n32
*181 n33
*182 n34
*183 REG_IN_DELAY_n13
*184 REG_IN_DELAY_n12
*185 REG_IN_DELAY_n11
*186 REG_IN_DELAY_n10
*187 REG_IN_DELAY_n9
*188 REG_IN_DELAY_n8
*189 REG_IN_DELAY_n7
*190 REG_IN_DELAY_n6
*191 REG_IN_DELAY_n5
*192 REG_IN_DELAY_n4
*193 REG_IN_DELAY_n3
*194 REG_IN_DELAY_n2
*195 REG_IN_DELAY_n27
*196 REG_IN_DELAY_n25
*197 REG_IN_DELAY_n22
*198 REG_IN_DELAY_n20
*199 REG_IN_DELAY_n18
*200 REG_IN_DELAY_n17
*201 REG_IN_DELAY_n15
*202 REG_IN_DELAY_n14
*203 REG_DATA_IN_n41
*204 REG_DATA_IN_n40
*205 REG_DATA_IN_n39
*206 REG_DATA_IN_n38
*207 REG_DATA_IN_n37
*208 REG_DATA_IN_n36
*209 REG_DATA_IN_n35
*210 REG_DATA_IN_n34
*211 REG_DATA_IN_n33
*212 REG_DATA_IN_n32
*213 REG_DATA_IN_n31
*214 REG_DATA_IN_n30
*215 REG_DATA_IN_n29
*216 REG_DATA_IN_n28
*217 REG_DATA_IN_n13
*218 REG_DATA_IN_n12
*219 REG_DATA_IN_n11
*220 REG_DATA_IN_n10
*221 REG_DATA_IN_n9
*222 REG_DATA_IN_n8
*223 REG_DATA_IN_n7
*224 REG_DATA_IN_n6
*225 REG_DATA_IN_n5
*226 REG_DATA_IN_n4
*227 REG_DATA_IN_n3
*228 REG_DATA_IN_n2
*229 REG_VIN_n4
*230 REG_VIN_n3
*231 REG_COEFF_A0_n41
*232 REG_COEFF_A0_n40
*233 REG_COEFF_A0_n39
*234 REG_COEFF_A0_n38
*235 REG_COEFF_A0_n37
*236 REG_COEFF_A0_n36
*237 REG_COEFF_A0_n35
*238 REG_COEFF_A0_n34
*239 REG_COEFF_A0_n33
*240 REG_COEFF_A0_n32
*241 REG_COEFF_A0_n31
*242 REG_COEFF_A0_n30
*243 REG_COEFF_A0_n29
*244 REG_COEFF_A0_n28
*245 REG_COEFF_A0_n13
*246 REG_COEFF_A0_n12
*247 REG_COEFF_A0_n11
*248 REG_COEFF_A0_n10
*249 REG_COEFF_A0_n9
*250 REG_COEFF_A0_n8
*251 REG_COEFF_A0_n7
*252 REG_COEFF_A0_n6
*253 REG_COEFF_A0_n5
*254 REG_COEFF_A0_n4
*255 REG_COEFF_A0_n3
*256 REG_COEFF_A0_n2
*257 REG_COEFF_A1_n41
*258 REG_COEFF_A1_n40
*259 REG_COEFF_A1_n39
*260 REG_COEFF_A1_n38
*261 REG_COEFF_A1_n37
*262 REG_COEFF_A1_n36
*263 REG_COEFF_A1_n35
*264 REG_COEFF_A1_n34
*265 REG_COEFF_A1_n33
*266 REG_COEFF_A1_n32
*267 REG_COEFF_A1_n31
*268 REG_COEFF_A1_n30
*269 REG_COEFF_A1_n29
*270 REG_COEFF_A1_n28
*271 REG_COEFF_A1_n13
*272 REG_COEFF_A1_n12
*273 REG_COEFF_A1_n11
*274 REG_COEFF_A1_n10
*275 REG_COEFF_A1_n9
*276 REG_COEFF_A1_n8
*277 REG_COEFF_A1_n7
*278 REG_COEFF_A1_n6
*279 REG_COEFF_A1_n5
*280 REG_COEFF_A1_n4
*281 REG_COEFF_A1_n3
*282 REG_COEFF_A1_n2
*283 REG_COEFF_A2_n41
*284 REG_COEFF_A2_n40
*285 REG_COEFF_A2_n39
*286 REG_COEFF_A2_n38
*287 REG_COEFF_A2_n37
*288 REG_COEFF_A2_n36
*289 REG_COEFF_A2_n35
*290 REG_COEFF_A2_n34
*291 REG_COEFF_A2_n33
*292 REG_COEFF_A2_n32
*293 REG_COEFF_A2_n31
*294 REG_COEFF_A2_n30
*295 REG_COEFF_A2_n29
*296 REG_COEFF_A2_n28
*297 REG_COEFF_A2_n13
*298 REG_COEFF_A2_n12
*299 REG_COEFF_A2_n11
*300 REG_COEFF_A2_n10
*301 REG_COEFF_A2_n9
*302 REG_COEFF_A2_n8
*303 REG_COEFF_A2_n7
*304 REG_COEFF_A2_n6
*305 REG_COEFF_A2_n5
*306 REG_COEFF_A2_n4
*307 REG_COEFF_A2_n3
*308 REG_COEFF_A2_n2
*309 REG_COEFF_B1_n41
*310 REG_COEFF_B1_n40
*311 REG_COEFF_B1_n39
*312 REG_COEFF_B1_n38
*313 REG_COEFF_B1_n37
*314 REG_COEFF_B1_n36
*315 REG_COEFF_B1_n35
*316 REG_COEFF_B1_n34
*317 REG_COEFF_B1_n33
*318 REG_COEFF_B1_n32
*319 REG_COEFF_B1_n31
*320 REG_COEFF_B1_n30
*321 REG_COEFF_B1_n29
*322 REG_COEFF_B1_n28
*323 REG_COEFF_B1_n13
*324 REG_COEFF_B1_n12
*325 REG_COEFF_B1_n11
*326 REG_COEFF_B1_n10
*327 REG_COEFF_B1_n9
*328 REG_COEFF_B1_n8
*329 REG_COEFF_B1_n7
*330 REG_COEFF_B1_n6
*331 REG_COEFF_B1_n5
*332 REG_COEFF_B1_n4
*333 REG_COEFF_B1_n3
*334 REG_COEFF_B1_n2
*335 REG_COEFF_B2_n41
*336 REG_COEFF_B2_n40
*337 REG_COEFF_B2_n39
*338 REG_COEFF_B2_n38
*339 REG_COEFF_B2_n37
*340 REG_COEFF_B2_n36
*341 REG_COEFF_B2_n35
*342 REG_COEFF_B2_n34
*343 REG_COEFF_B2_n33
*344 REG_COEFF_B2_n32
*345 REG_COEFF_B2_n31
*346 REG_COEFF_B2_n30
*347 REG_COEFF_B2_n29
*348 REG_COEFF_B2_n28
*349 REG_COEFF_B2_n13
*350 REG_COEFF_B2_n12
*351 REG_COEFF_B2_n11
*352 REG_COEFF_B2_n10
*353 REG_COEFF_B2_n9
*354 REG_COEFF_B2_n8
*355 REG_COEFF_B2_n7
*356 REG_COEFF_B2_n6
*357 REG_COEFF_B2_n5
*358 REG_COEFF_B2_n4
*359 REG_COEFF_B2_n3
*360 REG_COEFF_B2_n2
*361 REG_DATA_OUT_n41
*362 REG_DATA_OUT_n40
*363 REG_DATA_OUT_n39
*364 REG_DATA_OUT_n38
*365 REG_DATA_OUT_n37
*366 REG_DATA_OUT_n36
*367 REG_DATA_OUT_n35
*368 REG_DATA_OUT_n34
*369 REG_DATA_OUT_n33
*370 REG_DATA_OUT_n32
*371 REG_DATA_OUT_n31
*372 REG_DATA_OUT_n30
*373 REG_DATA_OUT_n29
*374 REG_DATA_OUT_n28
*375 REG_DATA_OUT_n13
*376 REG_DATA_OUT_n12
*377 REG_DATA_OUT_n11
*378 REG_DATA_OUT_n10
*379 REG_DATA_OUT_n9
*380 REG_DATA_OUT_n8
*381 REG_DATA_OUT_n7
*382 REG_DATA_OUT_n6
*383 REG_DATA_OUT_n5
*384 REG_DATA_OUT_n4
*385 REG_DATA_OUT_n3
*386 REG_DATA_OUT_n2
*387 REG_VOUT_n6
*388 REG_VOUT_n5
*389 REG_Z1_n14
*390 REG_Z1_n13
*391 REG_Z1_n12
*392 REG_Z1_n11
*393 REG_Z1_n10
*394 REG_Z1_n9
*395 REG_Z1_n8
*396 REG_Z1_n7
*397 REG_Z1_n6
*398 REG_Z1_n5
*399 REG_Z1_n4
*400 REG_Z1_n3
*401 REG_Z1_n2
*402 REG_Z1_n29
*403 REG_Z1_n28
*404 REG_Z1_n27
*405 REG_Z1_n26
*406 REG_Z1_n25
*407 REG_Z1_n24
*408 REG_Z1_n23
*409 REG_Z1_n22
*410 REG_Z1_n21
*411 REG_Z1_n20
*412 REG_Z1_n19
*413 REG_Z1_n18
*414 REG_Z1_n17
*415 REG_Z1_n16
*416 REG_Z1_n15
*417 REG_Z2_n44
*418 REG_Z2_n43
*419 REG_Z2_n42
*420 REG_Z2_n41
*421 REG_Z2_n40
*422 REG_Z2_n39
*423 REG_Z2_n38
*424 REG_Z2_n37
*425 REG_Z2_n36
*426 REG_Z2_n35
*427 REG_Z2_n34
*428 REG_Z2_n33
*429 REG_Z2_n32
*430 REG_Z2_n31
*431 REG_Z2_n30
*432 REG_Z2_n14
*433 REG_Z2_n13
*434 REG_Z2_n12
*435 REG_Z2_n11
*436 REG_Z2_n10
*437 REG_Z2_n9
*438 REG_Z2_n8
*439 REG_Z2_n7
*440 REG_Z2_n6
*441 REG_Z2_n5
*442 REG_Z2_n4
*443 REG_Z2_n3
*444 REG_Z2_n2
*445 add_1_root_add_99_2_n1
*446 add_1_root_add_106_2_n2
*447 mult_103_n565
*448 mult_103_n564
*449 mult_103_n563
*450 mult_103_n562
*451 mult_103_n561
*452 mult_103_n560
*453 mult_103_n559
*454 mult_103_n558
*455 mult_103_n557
*456 mult_103_n556
*457 mult_103_n555
*458 mult_103_n554
*459 mult_103_n553
*460 mult_103_n552
*461 mult_103_n551
*462 mult_103_n550
*463 mult_103_n549
*464 mult_103_n548
*465 mult_103_n547
*466 mult_103_n546
*467 mult_103_n545
*468 mult_103_n544
*469 mult_103_n543
*470 mult_103_n542
*471 mult_103_n541
*472 mult_103_n540
*473 mult_103_n539
*474 mult_103_n538
*475 mult_103_n537
*476 mult_103_n536
*477 mult_103_n535
*478 mult_103_n534
*479 mult_103_n533
*480 mult_103_n532
*481 mult_103_n531
*482 mult_103_n530
*483 mult_103_n529
*484 mult_103_n528
*485 mult_103_n527
*486 mult_103_n526
*487 mult_103_n525
*488 mult_103_n524
*489 mult_103_n523
*490 mult_103_n522
*491 mult_103_n521
*492 mult_103_n520
*493 mult_103_n519
*494 mult_103_n518
*495 mult_103_n517
*496 mult_103_n516
*497 mult_103_n515
*498 mult_103_n514
*499 mult_103_n513
*500 mult_103_n512
*501 mult_103_n511
*502 mult_103_n510
*503 mult_103_n509
*504 mult_103_n508
*505 mult_103_n507
*506 mult_103_n506
*507 mult_103_n505
*508 mult_103_n504
*509 mult_103_n503
*510 mult_103_n502
*511 mult_103_n501
*512 mult_103_n500
*513 mult_103_n499
*514 mult_103_n498
*515 mult_103_n497
*516 mult_103_n496
*517 mult_103_n495
*518 mult_103_n494
*519 mult_103_n493
*520 mult_103_n492
*521 mult_103_n491
*522 mult_103_n490
*523 mult_103_n489
*524 mult_103_n488
*525 mult_103_n487
*526 mult_103_n486
*527 mult_103_n485
*528 mult_103_n484
*529 mult_103_n483
*530 mult_103_n482
*531 mult_103_n481
*532 mult_103_n480
*533 mult_103_n479
*534 mult_103_n478
*535 mult_103_n477
*536 mult_103_n476
*537 mult_103_n475
*538 mult_103_n474
*539 mult_103_n473
*540 mult_103_n472
*541 mult_103_n471
*542 mult_103_n470
*543 mult_103_n469
*544 mult_103_n468
*545 mult_103_n467
*546 mult_103_n466
*547 mult_103_n465
*548 mult_103_n464
*549 mult_103_n463
*550 mult_103_n462
*551 mult_103_n461
*552 mult_103_n460
*553 mult_103_n459
*554 mult_103_n458
*555 mult_103_n457
*556 mult_103_n456
*557 mult_103_n455
*558 mult_103_n454
*559 mult_103_n453
*560 mult_103_n452
*561 mult_103_n451
*562 mult_103_n450
*563 mult_103_n449
*564 mult_103_n448
*565 mult_103_n447
*566 mult_103_n446
*567 mult_103_n445
*568 mult_103_n444
*569 mult_103_n443
*570 mult_103_n442
*571 mult_103_n441
*572 mult_103_n440
*573 mult_103_n439
*574 mult_103_n438
*575 mult_103_n437
*576 mult_103_n436
*577 mult_103_n435
*578 mult_103_n434
*579 mult_103_n433
*580 mult_103_n432
*581 mult_103_n431
*582 mult_103_n430
*583 mult_103_n429
*584 mult_103_n428
*585 mult_103_n427
*586 mult_103_n426
*587 mult_103_n425
*588 mult_103_n424
*589 mult_103_n423
*590 mult_103_n422
*591 mult_103_n421
*592 mult_103_n420
*593 mult_103_n419
*594 mult_103_n418
*595 mult_103_n238
*596 mult_103_n237
*597 mult_103_n236
*598 mult_103_n235
*599 mult_103_n234
*600 mult_103_n233
*601 mult_103_n232
*602 mult_103_n231
*603 mult_103_n230
*604 mult_103_n229
*605 mult_103_n226
*606 mult_103_n225
*607 mult_103_n224
*608 mult_103_n223
*609 mult_103_n222
*610 mult_103_n221
*611 mult_103_n220
*612 mult_103_n219
*613 mult_103_n218
*614 mult_103_n217
*615 mult_103_n216
*616 mult_103_n214
*617 mult_103_n213
*618 mult_103_n212
*619 mult_103_n211
*620 mult_103_n210
*621 mult_103_n209
*622 mult_103_n208
*623 mult_103_n207
*624 mult_103_n206
*625 mult_103_n204
*626 mult_103_n203
*627 mult_103_n201
*628 mult_103_n200
*629 mult_103_n199
*630 mult_103_n198
*631 mult_103_n197
*632 mult_103_n196
*633 mult_103_n195
*634 mult_103_n194
*635 mult_103_n193
*636 mult_103_n192
*637 mult_103_n191
*638 mult_103_n190
*639 mult_103_n188
*640 mult_103_n187
*641 mult_103_n186
*642 mult_103_n185
*643 mult_103_n184
*644 mult_103_n182
*645 mult_103_n181
*646 mult_103_n180
*647 mult_103_n179
*648 mult_103_n178
*649 mult_103_n177
*650 mult_103_n175
*651 mult_103_n174
*652 mult_103_n173
*653 mult_103_n172
*654 mult_103_n171
*655 mult_103_n170
*656 mult_103_n169
*657 mult_103_n168
*658 mult_103_n167
*659 mult_103_n166
*660 mult_103_n165
*661 mult_103_n161
*662 mult_103_n160
*663 mult_103_n159
*664 mult_103_n158
*665 mult_103_n141
*666 mult_103_n140
*667 mult_103_n139
*668 mult_103_n138
*669 mult_103_n137
*670 mult_103_n136
*671 mult_103_n135
*672 mult_103_n134
*673 mult_103_n133
*674 mult_103_n132
*675 mult_103_n131
*676 mult_103_n130
*677 mult_103_n129
*678 mult_103_n128
*679 mult_103_n127
*680 mult_103_n126
*681 mult_103_n125
*682 mult_103_n124
*683 mult_103_n123
*684 mult_103_n122
*685 mult_103_n121
*686 mult_103_n120
*687 mult_103_n119
*688 mult_103_n118
*689 mult_103_n117
*690 mult_103_n116
*691 mult_103_n115
*692 mult_103_n114
*693 mult_103_n113
*694 mult_103_n112
*695 mult_103_n111
*696 mult_103_n110
*697 mult_103_n109
*698 mult_103_n108
*699 mult_103_n107
*700 mult_103_n106
*701 mult_103_n105
*702 mult_103_n104
*703 mult_103_n103
*704 mult_103_n102
*705 mult_103_n101
*706 mult_103_n100
*707 mult_103_n99
*708 mult_103_n98
*709 mult_103_n97
*710 mult_103_n96
*711 mult_103_n95
*712 mult_103_n94
*713 mult_103_n93
*714 mult_103_n92
*715 mult_103_n91
*716 mult_103_n90
*717 mult_103_n89
*718 mult_103_n88
*719 mult_103_n87
*720 mult_103_n86
*721 mult_103_n85
*722 mult_103_n84
*723 mult_103_n83
*724 mult_103_n82
*725 mult_103_n81
*726 mult_103_n80
*727 mult_103_n79
*728 mult_103_n78
*729 mult_103_n77
*730 mult_103_n76
*731 mult_103_n75
*732 mult_103_n74
*733 mult_103_n73
*734 mult_103_n72
*735 mult_103_n70
*736 mult_103_n69
*737 mult_103_n68
*738 mult_103_n67
*739 mult_103_n66
*740 mult_103_n65
*741 mult_103_n64
*742 mult_103_n63
*743 mult_103_n62
*744 mult_103_n61
*745 mult_103_n60
*746 mult_103_n59
*747 mult_103_n58
*748 mult_103_n57
*749 mult_103_n56
*750 mult_103_n55
*751 mult_103_n54
*752 mult_103_n52
*753 mult_103_n51
*754 mult_103_n50
*755 mult_103_n49
*756 mult_103_n48
*757 mult_103_n47
*758 mult_103_n46
*759 mult_103_n45
*760 mult_103_n44
*761 mult_103_n43
*762 mult_103_n42
*763 mult_103_n41
*764 mult_103_n40
*765 mult_103_n38
*766 mult_103_n37
*767 mult_103_n36
*768 mult_103_n35
*769 mult_103_n34
*770 mult_103_n33
*771 mult_103_n32
*772 mult_103_n31
*773 mult_103_n30
*774 mult_103_n29
*775 mult_103_n27
*776 mult_103_n26
*777 mult_103_n13
*778 mult_103_n12
*779 mult_103_n11
*780 mult_103_n10
*781 mult_103_n9
*782 mult_103_n8
*783 mult_103_n7
*784 mult_103_n6
*785 mult_103_n5
*786 mult_103_n4
*787 add_1_root_add_91_2_n2
*788 add_1_root_add_101_2_n1
*789 mult_88_n565
*790 mult_88_n564
*791 mult_88_n563
*792 mult_88_n562
*793 mult_88_n561
*794 mult_88_n560
*795 mult_88_n559
*796 mult_88_n558
*797 mult_88_n557
*798 mult_88_n556
*799 mult_88_n555
*800 mult_88_n554
*801 mult_88_n553
*802 mult_88_n552
*803 mult_88_n551
*804 mult_88_n550
*805 mult_88_n549
*806 mult_88_n548
*807 mult_88_n547
*808 mult_88_n546
*809 mult_88_n545
*810 mult_88_n544
*811 mult_88_n543
*812 mult_88_n542
*813 mult_88_n541
*814 mult_88_n540
*815 mult_88_n539
*816 mult_88_n538
*817 mult_88_n537
*818 mult_88_n536
*819 mult_88_n535
*820 mult_88_n534
*821 mult_88_n533
*822 mult_88_n532
*823 mult_88_n531
*824 mult_88_n530
*825 mult_88_n529
*826 mult_88_n528
*827 mult_88_n527
*828 mult_88_n526
*829 mult_88_n525
*830 mult_88_n524
*831 mult_88_n523
*832 mult_88_n522
*833 mult_88_n521
*834 mult_88_n520
*835 mult_88_n519
*836 mult_88_n518
*837 mult_88_n517
*838 mult_88_n516
*839 mult_88_n515
*840 mult_88_n514
*841 mult_88_n513
*842 mult_88_n512
*843 mult_88_n511
*844 mult_88_n510
*845 mult_88_n509
*846 mult_88_n508
*847 mult_88_n507
*848 mult_88_n506
*849 mult_88_n505
*850 mult_88_n504
*851 mult_88_n503
*852 mult_88_n502
*853 mult_88_n501
*854 mult_88_n500
*855 mult_88_n499
*856 mult_88_n498
*857 mult_88_n497
*858 mult_88_n496
*859 mult_88_n495
*860 mult_88_n494
*861 mult_88_n493
*862 mult_88_n492
*863 mult_88_n491
*864 mult_88_n490
*865 mult_88_n489
*866 mult_88_n488
*867 mult_88_n487
*868 mult_88_n486
*869 mult_88_n485
*870 mult_88_n484
*871 mult_88_n483
*872 mult_88_n482
*873 mult_88_n481
*874 mult_88_n480
*875 mult_88_n479
*876 mult_88_n478
*877 mult_88_n477
*878 mult_88_n476
*879 mult_88_n475
*880 mult_88_n474
*881 mult_88_n473
*882 mult_88_n472
*883 mult_88_n471
*884 mult_88_n470
*885 mult_88_n469
*886 mult_88_n468
*887 mult_88_n467
*888 mult_88_n466
*889 mult_88_n465
*890 mult_88_n464
*891 mult_88_n463
*892 mult_88_n462
*893 mult_88_n461
*894 mult_88_n460
*895 mult_88_n459
*896 mult_88_n458
*897 mult_88_n457
*898 mult_88_n456
*899 mult_88_n455
*900 mult_88_n454
*901 mult_88_n453
*902 mult_88_n452
*903 mult_88_n451
*904 mult_88_n450
*905 mult_88_n449
*906 mult_88_n448
*907 mult_88_n447
*908 mult_88_n446
*909 mult_88_n442
*910 mult_88_n441
*911 mult_88_n440
*912 mult_88_n439
*913 mult_88_n438
*914 mult_88_n437
*915 mult_88_n436
*916 mult_88_n435
*917 mult_88_n434
*918 mult_88_n433
*919 mult_88_n432
*920 mult_88_n431
*921 mult_88_n430
*922 mult_88_n429
*923 mult_88_n428
*924 mult_88_n427
*925 mult_88_n426
*926 mult_88_n425
*927 mult_88_n424
*928 mult_88_n423
*929 mult_88_n422
*930 mult_88_n421
*931 mult_88_n420
*932 mult_88_n419
*933 mult_88_n418
*934 mult_88_n238
*935 mult_88_n237
*936 mult_88_n236
*937 mult_88_n235
*938 mult_88_n234
*939 mult_88_n233
*940 mult_88_n232
*941 mult_88_n231
*942 mult_88_n230
*943 mult_88_n229
*944 mult_88_n226
*945 mult_88_n225
*946 mult_88_n224
*947 mult_88_n223
*948 mult_88_n222
*949 mult_88_n221
*950 mult_88_n220
*951 mult_88_n219
*952 mult_88_n218
*953 mult_88_n217
*954 mult_88_n216
*955 mult_88_n214
*956 mult_88_n213
*957 mult_88_n212
*958 mult_88_n211
*959 mult_88_n210
*960 mult_88_n209
*961 mult_88_n208
*962 mult_88_n207
*963 mult_88_n206
*964 mult_88_n204
*965 mult_88_n203
*966 mult_88_n201
*967 mult_88_n200
*968 mult_88_n199
*969 mult_88_n198
*970 mult_88_n197
*971 mult_88_n196
*972 mult_88_n195
*973 mult_88_n194
*974 mult_88_n193
*975 mult_88_n192
*976 mult_88_n191
*977 mult_88_n190
*978 mult_88_n188
*979 mult_88_n187
*980 mult_88_n186
*981 mult_88_n185
*982 mult_88_n184
*983 mult_88_n182
*984 mult_88_n181
*985 mult_88_n180
*986 mult_88_n179
*987 mult_88_n178
*988 mult_88_n177
*989 mult_88_n175
*990 mult_88_n174
*991 mult_88_n173
*992 mult_88_n172
*993 mult_88_n171
*994 mult_88_n170
*995 mult_88_n169
*996 mult_88_n168
*997 mult_88_n167
*998 mult_88_n166
*999 mult_88_n165
*1000 mult_88_n161
*1001 mult_88_n160
*1002 mult_88_n159
*1003 mult_88_n158
*1004 mult_88_n141
*1005 mult_88_n140
*1006 mult_88_n139
*1007 mult_88_n138
*1008 mult_88_n137
*1009 mult_88_n136
*1010 mult_88_n135
*1011 mult_88_n134
*1012 mult_88_n133
*1013 mult_88_n132
*1014 mult_88_n131
*1015 mult_88_n130
*1016 mult_88_n129
*1017 mult_88_n128
*1018 mult_88_n127
*1019 mult_88_n126
*1020 mult_88_n125
*1021 mult_88_n124
*1022 mult_88_n123
*1023 mult_88_n122
*1024 mult_88_n121
*1025 mult_88_n120
*1026 mult_88_n119
*1027 mult_88_n118
*1028 mult_88_n117
*1029 mult_88_n116
*1030 mult_88_n115
*1031 mult_88_n114
*1032 mult_88_n113
*1033 mult_88_n112
*1034 mult_88_n111
*1035 mult_88_n110
*1036 mult_88_n109
*1037 mult_88_n108
*1038 mult_88_n107
*1039 mult_88_n106
*1040 mult_88_n105
*1041 mult_88_n104
*1042 mult_88_n103
*1043 mult_88_n102
*1044 mult_88_n101
*1045 mult_88_n100
*1046 mult_88_n99
*1047 mult_88_n98
*1048 mult_88_n97
*1049 mult_88_n96
*1050 mult_88_n95
*1051 mult_88_n94
*1052 mult_88_n93
*1053 mult_88_n92
*1054 mult_88_n91
*1055 mult_88_n90
*1056 mult_88_n89
*1057 mult_88_n88
*1058 mult_88_n87
*1059 mult_88_n86
*1060 mult_88_n85
*1061 mult_88_n84
*1062 mult_88_n83
*1063 mult_88_n82
*1064 mult_88_n81
*1065 mult_88_n80
*1066 mult_88_n79
*1067 mult_88_n78
*1068 mult_88_n77
*1069 mult_88_n76
*1070 mult_88_n75
*1071 mult_88_n74
*1072 mult_88_n73
*1073 mult_88_n72
*1074 mult_88_n70
*1075 mult_88_n69
*1076 mult_88_n68
*1077 mult_88_n67
*1078 mult_88_n66
*1079 mult_88_n65
*1080 mult_88_n64
*1081 mult_88_n63
*1082 mult_88_n62
*1083 mult_88_n61
*1084 mult_88_n60
*1085 mult_88_n59
*1086 mult_88_n58
*1087 mult_88_n57
*1088 mult_88_n56
*1089 mult_88_n55
*1090 mult_88_n54
*1091 mult_88_n52
*1092 mult_88_n51
*1093 mult_88_n50
*1094 mult_88_n49
*1095 mult_88_n48
*1096 mult_88_n47
*1097 mult_88_n46
*1098 mult_88_n45
*1099 mult_88_n44
*1100 mult_88_n43
*1101 mult_88_n42
*1102 mult_88_n41
*1103 mult_88_n40
*1104 mult_88_n38
*1105 mult_88_n37
*1106 mult_88_n36
*1107 mult_88_n35
*1108 mult_88_n34
*1109 mult_88_n33
*1110 mult_88_n32
*1111 mult_88_n31
*1112 mult_88_n30
*1113 mult_88_n29
*1114 mult_88_n27
*1115 mult_88_n26
*1116 mult_88_n13
*1117 mult_88_n12
*1118 mult_88_n11
*1119 mult_88_n10
*1120 mult_88_n9
*1121 mult_88_n8
*1122 mult_88_n7
*1123 mult_88_n6
*1124 mult_88_n5
*1125 mult_88_n4
*1126 mult_96_n565
*1127 mult_96_n564
*1128 mult_96_n563
*1129 mult_96_n562
*1130 mult_96_n561
*1131 mult_96_n560
*1132 mult_96_n559
*1133 mult_96_n558
*1134 mult_96_n557
*1135 mult_96_n556
*1136 mult_96_n555
*1137 mult_96_n554
*1138 mult_96_n553
*1139 mult_96_n552
*1140 mult_96_n551
*1141 mult_96_n550
*1142 mult_96_n549
*1143 mult_96_n548
*1144 mult_96_n547
*1145 mult_96_n546
*1146 mult_96_n545
*1147 mult_96_n544
*1148 mult_96_n543
*1149 mult_96_n542
*1150 mult_96_n541
*1151 mult_96_n540
*1152 mult_96_n539
*1153 mult_96_n538
*1154 mult_96_n537
*1155 mult_96_n536
*1156 mult_96_n535
*1157 mult_96_n534
*1158 mult_96_n533
*1159 mult_96_n532
*1160 mult_96_n531
*1161 mult_96_n530
*1162 mult_96_n529
*1163 mult_96_n528
*1164 mult_96_n527
*1165 mult_96_n526
*1166 mult_96_n525
*1167 mult_96_n524
*1168 mult_96_n523
*1169 mult_96_n522
*1170 mult_96_n521
*1171 mult_96_n520
*1172 mult_96_n519
*1173 mult_96_n518
*1174 mult_96_n517
*1175 mult_96_n516
*1176 mult_96_n515
*1177 mult_96_n514
*1178 mult_96_n513
*1179 mult_96_n512
*1180 mult_96_n511
*1181 mult_96_n510
*1182 mult_96_n509
*1183 mult_96_n508
*1184 mult_96_n507
*1185 mult_96_n506
*1186 mult_96_n505
*1187 mult_96_n504
*1188 mult_96_n503
*1189 mult_96_n502
*1190 mult_96_n501
*1191 mult_96_n500
*1192 mult_96_n499
*1193 mult_96_n498
*1194 mult_96_n497
*1195 mult_96_n496
*1196 mult_96_n495
*1197 mult_96_n494
*1198 mult_96_n493
*1199 mult_96_n492
*1200 mult_96_n491
*1201 mult_96_n490
*1202 mult_96_n489
*1203 mult_96_n488
*1204 mult_96_n487
*1205 mult_96_n486
*1206 mult_96_n485
*1207 mult_96_n484
*1208 mult_96_n483
*1209 mult_96_n482
*1210 mult_96_n481
*1211 mult_96_n480
*1212 mult_96_n479
*1213 mult_96_n478
*1214 mult_96_n477
*1215 mult_96_n476
*1216 mult_96_n475
*1217 mult_96_n474
*1218 mult_96_n473
*1219 mult_96_n472
*1220 mult_96_n471
*1221 mult_96_n470
*1222 mult_96_n469
*1223 mult_96_n468
*1224 mult_96_n467
*1225 mult_96_n466
*1226 mult_96_n465
*1227 mult_96_n464
*1228 mult_96_n463
*1229 mult_96_n462
*1230 mult_96_n461
*1231 mult_96_n460
*1232 mult_96_n459
*1233 mult_96_n458
*1234 mult_96_n457
*1235 mult_96_n456
*1236 mult_96_n455
*1237 mult_96_n454
*1238 mult_96_n453
*1239 mult_96_n452
*1240 mult_96_n451
*1241 mult_96_n450
*1242 mult_96_n449
*1243 mult_96_n448
*1244 mult_96_n447
*1245 mult_96_n446
*1246 mult_96_n445
*1247 mult_96_n444
*1248 mult_96_n443
*1249 mult_96_n442
*1250 mult_96_n441
*1251 mult_96_n440
*1252 mult_96_n439
*1253 mult_96_n438
*1254 mult_96_n437
*1255 mult_96_n435
*1256 mult_96_n433
*1257 mult_96_n432
*1258 mult_96_n431
*1259 mult_96_n430
*1260 mult_96_n429
*1261 mult_96_n428
*1262 mult_96_n427
*1263 mult_96_n426
*1264 mult_96_n425
*1265 mult_96_n424
*1266 mult_96_n423
*1267 mult_96_n422
*1268 mult_96_n421
*1269 mult_96_n420
*1270 mult_96_n419
*1271 mult_96_n418
*1272 mult_96_n238
*1273 mult_96_n237
*1274 mult_96_n236
*1275 mult_96_n235
*1276 mult_96_n234
*1277 mult_96_n233
*1278 mult_96_n232
*1279 mult_96_n231
*1280 mult_96_n230
*1281 mult_96_n229
*1282 mult_96_n226
*1283 mult_96_n225
*1284 mult_96_n224
*1285 mult_96_n223
*1286 mult_96_n222
*1287 mult_96_n221
*1288 mult_96_n220
*1289 mult_96_n219
*1290 mult_96_n218
*1291 mult_96_n217
*1292 mult_96_n216
*1293 mult_96_n214
*1294 mult_96_n213
*1295 mult_96_n212
*1296 mult_96_n211
*1297 mult_96_n210
*1298 mult_96_n209
*1299 mult_96_n208
*1300 mult_96_n207
*1301 mult_96_n206
*1302 mult_96_n204
*1303 mult_96_n203
*1304 mult_96_n201
*1305 mult_96_n200
*1306 mult_96_n199
*1307 mult_96_n198
*1308 mult_96_n197
*1309 mult_96_n196
*1310 mult_96_n195
*1311 mult_96_n194
*1312 mult_96_n193
*1313 mult_96_n192
*1314 mult_96_n191
*1315 mult_96_n190
*1316 mult_96_n188
*1317 mult_96_n187
*1318 mult_96_n186
*1319 mult_96_n185
*1320 mult_96_n184
*1321 mult_96_n182
*1322 mult_96_n181
*1323 mult_96_n180
*1324 mult_96_n179
*1325 mult_96_n178
*1326 mult_96_n177
*1327 mult_96_n175
*1328 mult_96_n174
*1329 mult_96_n173
*1330 mult_96_n172
*1331 mult_96_n171
*1332 mult_96_n170
*1333 mult_96_n169
*1334 mult_96_n168
*1335 mult_96_n167
*1336 mult_96_n166
*1337 mult_96_n165
*1338 mult_96_n161
*1339 mult_96_n160
*1340 mult_96_n159
*1341 mult_96_n158
*1342 mult_96_n141
*1343 mult_96_n140
*1344 mult_96_n139
*1345 mult_96_n138
*1346 mult_96_n137
*1347 mult_96_n136
*1348 mult_96_n135
*1349 mult_96_n134
*1350 mult_96_n133
*1351 mult_96_n132
*1352 mult_96_n131
*1353 mult_96_n130
*1354 mult_96_n129
*1355 mult_96_n128
*1356 mult_96_n127
*1357 mult_96_n126
*1358 mult_96_n125
*1359 mult_96_n124
*1360 mult_96_n123
*1361 mult_96_n122
*1362 mult_96_n121
*1363 mult_96_n120
*1364 mult_96_n119
*1365 mult_96_n118
*1366 mult_96_n117
*1367 mult_96_n116
*1368 mult_96_n115
*1369 mult_96_n114
*1370 mult_96_n113
*1371 mult_96_n112
*1372 mult_96_n111
*1373 mult_96_n110
*1374 mult_96_n109
*1375 mult_96_n108
*1376 mult_96_n107
*1377 mult_96_n106
*1378 mult_96_n105
*1379 mult_96_n104
*1380 mult_96_n103
*1381 mult_96_n102
*1382 mult_96_n101
*1383 mult_96_n100
*1384 mult_96_n99
*1385 mult_96_n98
*1386 mult_96_n97
*1387 mult_96_n96
*1388 mult_96_n95
*1389 mult_96_n94
*1390 mult_96_n93
*1391 mult_96_n92
*1392 mult_96_n91
*1393 mult_96_n90
*1394 mult_96_n89
*1395 mult_96_n88
*1396 mult_96_n87
*1397 mult_96_n86
*1398 mult_96_n85
*1399 mult_96_n84
*1400 mult_96_n83
*1401 mult_96_n82
*1402 mult_96_n81
*1403 mult_96_n80
*1404 mult_96_n79
*1405 mult_96_n78
*1406 mult_96_n77
*1407 mult_96_n76
*1408 mult_96_n75
*1409 mult_96_n74
*1410 mult_96_n73
*1411 mult_96_n72
*1412 mult_96_n70
*1413 mult_96_n69
*1414 mult_96_n68
*1415 mult_96_n67
*1416 mult_96_n66
*1417 mult_96_n65
*1418 mult_96_n64
*1419 mult_96_n63
*1420 mult_96_n62
*1421 mult_96_n61
*1422 mult_96_n60
*1423 mult_96_n59
*1424 mult_96_n58
*1425 mult_96_n57
*1426 mult_96_n56
*1427 mult_96_n55
*1428 mult_96_n54
*1429 mult_96_n52
*1430 mult_96_n51
*1431 mult_96_n50
*1432 mult_96_n49
*1433 mult_96_n48
*1434 mult_96_n47
*1435 mult_96_n46
*1436 mult_96_n45
*1437 mult_96_n44
*1438 mult_96_n43
*1439 mult_96_n42
*1440 mult_96_n41
*1441 mult_96_n40
*1442 mult_96_n38
*1443 mult_96_n37
*1444 mult_96_n36
*1445 mult_96_n35
*1446 mult_96_n34
*1447 mult_96_n33
*1448 mult_96_n32
*1449 mult_96_n31
*1450 mult_96_n30
*1451 mult_96_n29
*1452 mult_96_n27
*1453 mult_96_n26
*1454 mult_96_n13
*1455 mult_96_n12
*1456 mult_96_n11
*1457 mult_96_n10
*1458 mult_96_n9
*1459 mult_96_n8
*1460 mult_96_n7
*1461 mult_96_n6
*1462 mult_96_n5
*1463 mult_96_n4
*1464 mult_85_n565
*1465 mult_85_n564
*1466 mult_85_n563
*1467 mult_85_n562
*1468 mult_85_n561
*1469 mult_85_n560
*1470 mult_85_n559
*1471 mult_85_n558
*1472 mult_85_n557
*1473 mult_85_n556
*1474 mult_85_n555
*1475 mult_85_n554
*1476 mult_85_n553
*1477 mult_85_n552
*1478 mult_85_n551
*1479 mult_85_n550
*1480 mult_85_n549
*1481 mult_85_n548
*1482 mult_85_n547
*1483 mult_85_n546
*1484 mult_85_n545
*1485 mult_85_n544
*1486 mult_85_n543
*1487 mult_85_n542
*1488 mult_85_n541
*1489 mult_85_n540
*1490 mult_85_n539
*1491 mult_85_n538
*1492 mult_85_n537
*1493 mult_85_n536
*1494 mult_85_n535
*1495 mult_85_n534
*1496 mult_85_n533
*1497 mult_85_n532
*1498 mult_85_n531
*1499 mult_85_n530
*1500 mult_85_n529
*1501 mult_85_n528
*1502 mult_85_n527
*1503 mult_85_n526
*1504 mult_85_n525
*1505 mult_85_n524
*1506 mult_85_n523
*1507 mult_85_n522
*1508 mult_85_n521
*1509 mult_85_n520
*1510 mult_85_n519
*1511 mult_85_n518
*1512 mult_85_n517
*1513 mult_85_n516
*1514 mult_85_n515
*1515 mult_85_n514
*1516 mult_85_n513
*1517 mult_85_n512
*1518 mult_85_n511
*1519 mult_85_n510
*1520 mult_85_n509
*1521 mult_85_n508
*1522 mult_85_n507
*1523 mult_85_n506
*1524 mult_85_n505
*1525 mult_85_n504
*1526 mult_85_n503
*1527 mult_85_n502
*1528 mult_85_n501
*1529 mult_85_n500
*1530 mult_85_n499
*1531 mult_85_n498
*1532 mult_85_n497
*1533 mult_85_n496
*1534 mult_85_n495
*1535 mult_85_n494
*1536 mult_85_n493
*1537 mult_85_n492
*1538 mult_85_n491
*1539 mult_85_n490
*1540 mult_85_n489
*1541 mult_85_n488
*1542 mult_85_n487
*1543 mult_85_n486
*1544 mult_85_n485
*1545 mult_85_n484
*1546 mult_85_n483
*1547 mult_85_n482
*1548 mult_85_n481
*1549 mult_85_n480
*1550 mult_85_n479
*1551 mult_85_n478
*1552 mult_85_n477
*1553 mult_85_n476
*1554 mult_85_n475
*1555 mult_85_n474
*1556 mult_85_n473
*1557 mult_85_n472
*1558 mult_85_n471
*1559 mult_85_n470
*1560 mult_85_n469
*1561 mult_85_n468
*1562 mult_85_n467
*1563 mult_85_n466
*1564 mult_85_n465
*1565 mult_85_n464
*1566 mult_85_n463
*1567 mult_85_n462
*1568 mult_85_n461
*1569 mult_85_n460
*1570 mult_85_n459
*1571 mult_85_n458
*1572 mult_85_n457
*1573 mult_85_n456
*1574 mult_85_n455
*1575 mult_85_n454
*1576 mult_85_n453
*1577 mult_85_n452
*1578 mult_85_n451
*1579 mult_85_n450
*1580 mult_85_n449
*1581 mult_85_n448
*1582 mult_85_n447
*1583 mult_85_n446
*1584 mult_85_n442
*1585 mult_85_n441
*1586 mult_85_n440
*1587 mult_85_n439
*1588 mult_85_n438
*1589 mult_85_n437
*1590 mult_85_n436
*1591 mult_85_n435
*1592 mult_85_n434
*1593 mult_85_n433
*1594 mult_85_n432
*1595 mult_85_n431
*1596 mult_85_n430
*1597 mult_85_n429
*1598 mult_85_n428
*1599 mult_85_n427
*1600 mult_85_n426
*1601 mult_85_n425
*1602 mult_85_n424
*1603 mult_85_n423
*1604 mult_85_n422
*1605 mult_85_n421
*1606 mult_85_n420
*1607 mult_85_n419
*1608 mult_85_n418
*1609 mult_85_n238
*1610 mult_85_n237
*1611 mult_85_n236
*1612 mult_85_n235
*1613 mult_85_n234
*1614 mult_85_n233
*1615 mult_85_n232
*1616 mult_85_n231
*1617 mult_85_n230
*1618 mult_85_n229
*1619 mult_85_n226
*1620 mult_85_n225
*1621 mult_85_n224
*1622 mult_85_n223
*1623 mult_85_n222
*1624 mult_85_n221
*1625 mult_85_n220
*1626 mult_85_n219
*1627 mult_85_n218
*1628 mult_85_n217
*1629 mult_85_n216
*1630 mult_85_n214
*1631 mult_85_n213
*1632 mult_85_n212
*1633 mult_85_n211
*1634 mult_85_n210
*1635 mult_85_n209
*1636 mult_85_n208
*1637 mult_85_n207
*1638 mult_85_n206
*1639 mult_85_n204
*1640 mult_85_n203
*1641 mult_85_n201
*1642 mult_85_n200
*1643 mult_85_n199
*1644 mult_85_n198
*1645 mult_85_n197